PF-07976265
       ACL          3D   0.00000     0.00000     0

 68 73  0  0  1  0  0  0  1  0999 V2000
   14.4710   11.0440    3.4940 C   0  0  0  0  0  0  0  0  0  0  0  0
   13.0720   11.3780    3.0050 C   0  0  0  0  0  0  0  0  0  0  0  0
   12.7730   10.6320    1.7080 C   0  0  0  0  0  0  0  0  0  0  0  0
   13.6510   10.3160    0.9150 O   0  0  0  0  0  0  0  0  0  0  0  0
   11.4740   10.3660    1.4740 N   0  0  0  0  0  0  0  0  0  0  0  0
   10.4790   10.5880    2.4010 C   0  0  0  0  0  0  0  0  0  0  0  0
   10.8270   10.8460    3.7250 C   0  0  0  0  0  0  0  0  0  0  0  0
    9.8420   10.9770    4.6920 C   0  0  0  0  0  0  0  0  0  0  0  0
    8.5230   10.8570    4.2880 C   0  0  0  0  0  0  0  0  0  0  0  0
    8.2550   10.6030    2.9310 C   0  0  0  0  0  0  0  0  0  0  0  0
    9.2110   10.4820    2.0010 N   0  0  0  0  0  0  0  0  0  0  0  0
    7.0240   10.3170    2.3830 N   0  0  0  0  0  0  0  0  0  0  0  0
    5.8270    9.9440    2.9300 C   0  0  0  0  0  0  0  0  0  0  0  0
    4.7500    9.6770    2.0940 C   0  0  0  0  0  0  0  0  0  0  0  0
    3.5500    9.3130    2.6350 C   0  0  0  0  0  0  0  0  0  0  0  0
    3.3770    9.1920    3.9530 N   0  0  0  0  0  0  0  0  0  0  0  0
    4.4570    9.4630    4.7020 C   0  0  0  0  0  0  0  0  0  0  0  0
    5.6740    9.8280    4.2600 N   0  0  0  0  0  0  0  0  0  0  0  0
    4.2960    9.3190    6.0500 N   0  0  0  0  0  0  0  0  0  0  0  0
    5.2250    9.5550    7.0920 C   0  0  0  0  0  0  0  0  0  0  0  0
    6.5870    9.2450    7.0140 C   0  0  0  0  0  0  0  0  0  0  0  0
    7.4320    9.4840    8.0910 C   0  0  0  0  0  0  0  0  0  0  0  0
    6.8920   10.0330    9.2430 C   0  0  0  0  0  0  0  0  0  0  0  0
    5.5230   10.3480    9.3380 C   0  0  0  0  0  0  0  0  0  0  0  0
    4.6960   10.0960    8.2570 C   0  0  0  0  0  0  0  0  0  0  0  0
    5.3220   10.9870   10.6100 C   0  0  0  0  0  0  0  0  0  0  0  0
    6.5430   11.0220   11.2200 C   0  0  0  0  0  0  0  0  0  0  0  0
    7.4940   10.4540   10.4050 N   0  0  0  0  0  0  0  0  0  0  0  0
    4.0410   11.6570   11.0310 C   0  0  1  0  0  0  0  0  0  0  0  0
    2.8880   10.6540   11.1680 C   0  0  0  0  0  0  0  0  0  0  0  0
    1.5770   11.3500   11.5480 C   0  0  0  0  0  0  0  0  0  0  0  0
    1.7490   12.1700   12.8090 C   0  0  0  0  0  0  0  0  0  0  0  0
    2.8380   13.1810   12.6360 N   0  3  2  0  0  0  0  0  0  0  0  0
    4.1540   12.5130   12.2910 C   0  0  0  0  0  0  0  0  0  0  0  0
    2.9770   14.0400   13.8470 C   0  0  0  0  0  0  0  0  0  0  0  0
    4.9180    9.6670    0.7560 F   0  0  0  0  0  0  0  0  0  0  0  0
   12.1450   11.0080    4.0850 O   0  0  0  0  0  0  0  0  0  0  0  0
   12.9130   12.8730    2.7800 C   0  0  0  0  0  0  0  0  0  0  0  0
   15.2000   11.3390    2.7400 H   0  0  0  0  0  0  0  0  0  0  0  0
   14.6700   11.5830    4.4210 H   0  0  0  0  0  0  0  0  0  0  0  0
   14.5480    9.9720    3.6740 H   0  0  0  0  0  0  0  0  0  0  0  0
   11.2130    9.9810    0.5640 H   0  0  0  0  0  0  0  0  0  0  0  0
   10.0960   11.1680    5.7290 H   0  0  0  0  0  0  0  0  0  0  0  0
    7.7130   10.9560    5.0040 H   0  0  0  0  0  0  0  0  0  0  0  0
    7.0000   10.4000    1.3630 H   0  0  0  0  0  0  0  0  0  0  0  0
    2.7130    9.1160    1.9740 H   0  0  0  0  0  0  0  0  0  0  0  0
    3.3730    8.9950    6.3500 H   0  0  0  0  0  0  0  0  0  0  0  0
    6.9890    8.8150    6.1020 H   0  0  0  0  0  0  0  0  0  0  0  0
    8.4890    9.2460    8.0310 H   0  0  0  0  0  0  0  0  0  0  0  0
    3.6360   10.3200    8.3190 H   0  0  0  0  0  0  0  0  0  0  0  0
    6.7350   11.4360   12.2030 H   0  0  0  0  0  0  0  0  0  0  0  0
    8.4880   10.3610   10.6280 H   0  0  0  0  0  0  0  0  0  0  0  0
    3.7660   12.3380   10.2180 H   0  0  0  0  0  0  0  0  0  0  0  0
    2.7580   10.1100   10.2250 H   0  0  0  0  0  0  0  0  0  0  0  0
    3.1400    9.9020   11.9240 H   0  0  0  0  0  0  0  0  0  0  0  0
    1.2440   11.9950   10.7270 H   0  0  0  0  0  0  0  0  0  0  0  0
    0.7870   10.6050   11.6920 H   0  0  0  0  0  0  0  0  0  0  0  0
    0.8080   12.6730   13.0600 H   0  0  0  0  0  0  0  0  0  0  0  0
    1.9790   11.5120   13.6550 H   0  0  0  0  0  0  0  0  0  0  0  0
    2.5830   13.7780   11.8620 H   0  0  0  0  0  0  0  0  0  0  0  0
    4.4840   11.8920   13.1310 H   0  0  0  0  0  0  0  0  0  0  0  0
    4.9300   13.2760   12.1520 H   0  0  0  0  0  0  0  0  0  0  0  0
    3.2160   13.4170   14.7090 H   0  0  0  0  0  0  0  0  0  0  0  0
    3.7760   14.7630   13.6890 H   0  0  0  0  0  0  0  0  0  0  0  0
    2.0400   14.5680   14.0280 H   0  0  0  0  0  0  0  0  0  0  0  0
   13.6330   13.2060    2.0320 H   0  0  0  0  0  0  0  0  0  0  0  0
   11.9020   13.0840    2.4300 H   0  0  0  0  0  0  0  0  0  0  0  0
   13.0910   13.4030    3.7160 H   0  0  0  0  0  0  0  0  0  0  0  0
  1  2  1  0  0  0  0
  1 39  1  0  0  0  0
  1 40  1  0  0  0  0
  1 41  1  0  0  0  0
  2  3  1  0  0  0  0
  2 37  1  0  0  0  0
  2 38  1  0  0  0  0
  3  4  2  0  0  0  0
  3  5  1  0  0  0  0
  5  6  1  0  0  0  0
  5 42  1  0  0  0  0
  6  7  1  0  0  0  0
  6 11  2  0  0  0  0
  7  8  2  0  0  0  0
  7 37  1  0  0  0  0
  8  9  1  0  0  0  0
  8 43  1  0  0  0  0
  9 10  2  0  0  0  0
  9 44  1  0  0  0  0
 10 11  1  0  0  0  0
 10 12  1  0  0  0  0
 12 13  1  0  0  0  0
 12 45  1  0  0  0  0
 13 14  1  0  0  0  0
 13 18  2  0  0  0  0
 14 15  2  0  0  0  0
 14 36  1  0  0  0  0
 15 16  1  0  0  0  0
 15 46  1  0  0  0  0
 16 17  2  0  0  0  0
 17 18  1  0  0  0  0
 17 19  1  0  0  0  0
 19 20  1  0  0  0  0
 19 47  1  0  0  0  0
 20 21  1  0  0  0  0
 20 25  2  0  0  0  0
 21 22  2  0  0  0  0
 21 48  1  0  0  0  0
 22 23  1  0  0  0  0
 22 49  1  0  0  0  0
 23 24  2  0  0  0  0
 23 28  1  0  0  0  0
 24 25  1  0  0  0  0
 24 26  1  0  0  0  0
 25 50  1  0  0  0  0
 26 27  2  0  0  0  0
 26 29  1  0  0  0  0
 27 28  1  0  0  0  0
 27 51  1  0  0  0  0
 28 52  1  0  0  0  0
 29 30  1  0  0  0  0
 29 34  1  0  0  0  0
 29 53  1  0  0  0  0
 30 31  1  0  0  0  0
 30 54  1  0  0  0  0
 30 55  1  0  0  0  0
 31 32  1  0  0  0  0
 31 56  1  0  0  0  0
 31 57  1  0  0  0  0
 32 33  1  0  0  0  0
 32 58  1  0  0  0  0
 32 59  1  0  0  0  0
 33 34  1  0  0  0  0
 33 35  1  0  0  0  0
 33 60  1  0  0  0  0
 34 61  1  0  0  0  0
 34 62  1  0  0  0  0
 35 63  1  0  0  0  0
 35 64  1  0  0  0  0
 35 65  1  0  0  0  0
 38 66  1  0  0  0  0
 38 67  1  0  0  0  0
 38 68  1  0  0  0  0
M  CHG  1  33   1
M  END
> <MVT_STAR_RATING>
0

$$$$
